************************************************************************
* auCdl Netlist:
* 
* Library Name: compiler_ts13
* Top Cell Name: i16x4m4
* View Name: schematic
* Netlisted on: Jan 21 07:35:07 2019
************************************************************************

*.BIPOLAR
*.RESI = 2000 
*.RESVAL
*.CAPVAL
*.DIOPERI
*.DIOAREA
*.EQUATION
*.SCALE METER
*.MEGA
.PARAM



************************************************************************
* Library Name: insemi_stdcell_130
* Cell Name: inverter
* View Name: schematic
************************************************************************

.SUBCKT inverter In Out vdd vnw vpw vss 
*.PININFO In:I vdd:I vnw:I vpw:I vss:I Out:O
MNM0 Out In vss vpw N M=1 L=ln W=wn
MPM0 Out In vdd vnw P W=wp L=lp M=1
.ENDS


************************************************************************
* Library Name: insemi_stdcell_130
* Cell Name: nand2
* View Name: schematic
************************************************************************

.SUBCKT nand2 A B Y vdd vnw vpw vss 
*.PININFO A:I B:I vdd:I vnw:I vpw:I vss:I Y:O
MNM0 Y A net12 vpw N M=1 L=lna W=wna
MNM1 net12 B vss vpw N M=1 L=lnb W=wnb
MPM0 Y A vdd vnw P W=wpa L=lpa M=1
MPM1 Y B vdd vnw P W=wpb L=lpb M=1
.ENDS


************************************************************************
* Library Name: compiler_ts13
* Cell Name: writedriver2
* View Name: schematic
************************************************************************

.SUBCKT writedriver2 bnksel1_b bnksel1_t bnksel2_b bnksel2_t bnksel3_b bnksel3_t bnksel4_b bnksel4_t cadd_n_0 cadd_n_1 iclk pdec00 pdec01 pdec02 pdec03 pdec04 pdec05 pdec06 pdec07 pdec10 pdec11 pdec12 pdec13 pdec14 pdec15 pdec16 pdec17 pdec0 pdec1 radd_n_0 reset vdd vnw vpw vss wenb wl_l<0> wl_l<1> wl_r<0> wl_r<1> wlclk0 wlclk1 
*.SUBCKT writedriver2 bnksel1_b bnksel1_t bnksel2_b bnksel2_t bnksel3_b 
*+ bnksel3_t bnksel4_b bnksel4_t cadd_n_0 cadd_n_1 iclk pdec00 pdec01 pdec02 
*+ pdec03 pdec04 pdec05 pdec06 pdec07 pdec10 pdec11 pdec12 pdec13 pdec14 pdec15 
*+ pdec16 pdec17 predec0 predec1 radd_n_0 reset vdd vnw vpw vss wenb wl_l<0> 
*+ wl_l<1> wl_r<0> wl_r<1> wlclk0 wlclk1
*.PININFO bnksel1_b:B bnksel1_t:B bnksel2_b:B bnksel2_t:B bnksel3_b:B 
*.PININFO bnksel3_t:B bnksel4_b:B bnksel4_t:B cadd_n_0:B cadd_n_1:B iclk:B 
*.PININFO pdec00:B pdec01:B pdec02:B pdec03:B pdec04:B pdec05:B pdec06:B 
*.PININFO pdec07:B pdec10:B pdec11:B pdec12:B pdec13:B pdec14:B pdec15:B 
*.PININFO pdec16:B pdec17:B predec0:B predec1:B radd_n_0:B reset:B vdd:B vnw:B 
*.PININFO vpw:B vss:B wenb:B wl_l<0>:B wl_l<1>:B wl_r<0>:B wl_r<1>:B wlclk0:B 
*.PININFO wlclk1:B
Xdrvwlr1 nwl1 wl_r<1> vdd vnw vpw vss / inverter lp=0.13u wp=8.6u wn=5.7u 
+ ln=0.13u
Xdrvwlr0 nwl0 wl_r<0> vdd vnw vpw vss / inverter lp=0.13u wp=8.6u wn=5.7u 
+ ln=0.13u
Xpredrvwl0 rdec0 prewl0 vdd vnw vpw vss / inverter lp=0.13u wp=2.2u wn=1.4u 
+ ln=0.13u
Xdrvwll1 nwl1 wl_l<1> vdd vnw vpw vss / inverter lp=0.13u wp=8.6u wn=5.7u 
+ ln=0.13u
Xdrvwll0 nwl0 wl_l<0> vdd vnw vpw vss / inverter lp=0.13u wp=8.6u wn=5.7u 
+ ln=0.13u
Xrowdec0 pdec1 pdec0 rdec0 vdd vnw vpw vss / nand2 lpb=0.13u wpb=0.460u 
+ lpa=0.13u wpa=0.460u wnb=0.345u lnb=0.13u wna=0.345u lna=0.13u
XI11 wlclk0 prewl0 nwl0 vdd vnw vpw vss / nand2 lpb=0.13u wpb=4.32u lpa=0.13u 
+ wpa=4.32u wnb=4.32u lnb=0.13u wna=4.32u lna=0.13u
XI10 wlclk1 prewl0 nwl1 vdd vnw vpw vss / nand2 lpb=0.13u wpb=4.32u lpa=0.13u 
+ wpa=4.32u wnb=4.32u lnb=0.13u wna=4.32u lna=0.13u
.ENDS


************************************************************************
* Library Name: insemi_compiler_130
* Cell Name: dealybuff
* View Name: schematic
************************************************************************

.SUBCKT dealybuff In Out vdd vnw vpw vss 
*.PININFO In:I vdd:I vnw:I vpw:I vss:I Out:O
MPM0 in0p In vdd vnw P W=wp L=lp M=1
MPM4 in1 In in0p vnw P W=wp L=lp M=1
MPM6 in2 in1 in1p vnw P W=wp L=lp M=1
MPM5 in1p in1 vdd vnw P W=wp L=lp M=1
MPM7 in3 in2 in2p vnw P W=wp L=lp M=1
MPM8 in2p in2 vdd vnw P W=wp L=lp M=1
MPM9 in3p in3 vdd vnw P W=wp L=lp M=1
MPM10 Out in3 in3p vnw P W=wp L=lp M=1
MNM0 in0n In vss vpw N M=1 L=ln W=wn
MNM5 in1n in1 vss vpw N M=1 L=ln W=wn
MNM6 in2 in1 in1n vpw N M=1 L=ln W=wn
MNM4 in1 In in0n vpw N M=1 L=ln W=wn
MNM7 in3 in2 in2n vpw N M=1 L=ln W=wn
MNM8 in2n in2 vss vpw N M=1 L=ln W=wn
MNM9 in3n in3 vss vpw N M=1 L=ln W=wn
MNM10 Out in3 in3n vpw N M=1 L=ln W=wn
.ENDS


************************************************************************
* Library Name: insemi_compiler_130
* Cell Name: sactrl
* View Name: schematic
************************************************************************

.SUBCKT sactrl iclk nsae_l nsae_r rden sapch_l sapch_r vdd vnw vpw vss 
*.PININFO vdd:I vnw:I vpw:I vss:I iclk:B nsae_l:B nsae_r:B rden:B sapch_l:B 
*.PININFO sapch_r:B
XI0 iclkn iclkb vdd vnw vpw vss / inverter lp=0.13u wp=0.17u wn=0.17u ln=0.13u
XI1 nsae_nand sae vdd vnw vpw vss / inverter lp=0.13u wp=4.3u wn=2.8u ln=0.13u
XI2 sae nsae_l vdd vnw vpw vss / inverter lp=0.13u wp=11.5u wn=8.6u ln=0.13u
XI9 spch_nand nsapch vdd vnw vpw vss / inverter lp=0.13u wp=4.3u wn=2.8u 
+ ln=0.13u
XI13 nsapch sapch_l vdd vnw vpw vss / inverter lp=0.13u wp=11.5u wn=8.6u 
+ ln=0.13u
XI8 nsapch sapch_r vdd vnw vpw vss / inverter lp=0.13u wp=11.5u wn=8.6u 
+ ln=0.13u
XI11 iclkb_buf iclkb_buf_n vdd vnw vpw vss / inverter lp=0.13u wp=0.17u 
+ wn=0.17u ln=0.13u
XI12 sae nsae_r vdd vnw vpw vss / inverter lp=0.13u wp=11.5u wn=8.6u ln=0.13u
XI4 iclkb iclkb_buf vdd vnw vpw vss / dealybuff wn=175n ln=130n lp=130n wp=175n
XI3 iclkn iclkb_buf nsae_nand vdd vnw vpw vss / nand2 lpb=0.13u wpb=1.7u 
+ lpa=0.13u wpa=1.7u wnb=1.15u lnb=0.13u wna=1.15u lna=0.13u
XI7 iclkn iclkb_buf_n spch_nand vdd vnw vpw vss / nand2 lpb=0.13u wpb=1.7u 
+ lpa=0.13u wpa=1.7u wnb=1.15u lnb=0.13u wna=1.15u lna=0.13u
XI14 rden iclk iclkn vdd vnw vpw vss / nand2 lpb=0.13u wpb=1.7u lpa=0.13u 
+ wpa=1.7u wnb=1.15u lnb=0.13u wna=1.15u lna=0.13u
.ENDS


************************************************************************
* Library Name: insemi_stdcell_130
* Cell Name: nand3
* View Name: schematic
************************************************************************

.SUBCKT nand3 A B C Y vdd vnw vpw vss 
*.PININFO A:I B:I C:I vdd:I vnw:I vpw:I vss:I Y:O
MM0 Y B vdd vnw P W=wpa L=lpa M=1
MPM0 Y A vdd vnw P W=wpa L=lpa M=1
MPM2 Y C vdd vnw P W=wpc L=lpc M=1
MNM2 net9 C vss vpw N M=1 L=lnc W=wnc
MNM1 net17 B net9 vpw N M=1 L=lnb W=wnb
MNM0 Y A net17 vpw N M=1 L=lna W=wna
.ENDS


************************************************************************
* Library Name: insemi_compiler_130
* Cell Name: wclkgen
* View Name: schematic
************************************************************************

.SUBCKT wclkgen bankselect iclk pdec0 pdec1 vdd vnw vpw vss wlclk0 wlclk1 
*.PININFO wlclk0:O wlclk1:O bankselect:B iclk:B pdec0:B pdec1:B vdd:B vnw:B 
*.PININFO vpw:B vss:B
XI25 net6 wlclk1 vdd vnw vpw vss / inverter lp=0.13u wp=11.5u wn=8.6u ln=0.13u
XI48 net14 wlclk0 vdd vnw vpw vss / inverter lp=0.13u wp=11.5u wn=11.5u 
+ ln=0.13u
XI49 iclk pdec0 bankselect net14 vdd vnw vpw vss / nand3 wna=5.7u lna=0.13u 
+ wnb=5.7u lnb=0.13u wnc=5.7u lnc=0.13u lpc=0.13u wpc=5.7u lpa=0.13u wpa=5.7u
XI24 iclk pdec1 bankselect net6 vdd vnw vpw vss / nand3 wna=5.7u lna=0.13u 
+ wnb=5.7u lnb=0.13u wnc=5.7u lnc=0.13u lpc=0.13u wpc=5.7u lpa=0.13u wpa=5.7u
.ENDS


************************************************************************
* Library Name: insemi_compiler_130
* Cell Name: 2x4_decoder
* View Name: schematic
************************************************************************

.SUBCKT 2x4_decoder A0 A1 vdd vnw vpw vss y0 y1 y2 y3 
*.PININFO A0:I A1:I vdd:I vnw:I vpw:I vss:I y0:O y1:O y2:O y3:O
XI4 A0 A0BAR vdd vnw vpw vss / inverter lp=0.13u wp=0.460u wn=0.345u ln=0.13u
XI5 A1 A1BAR vdd vnw vpw vss / inverter lp=0.13u wp=0.460u wn=0.345u ln=0.13u
XI9 net040 y0 vdd vnw vpw vss / inverter lp=0.13u wp=2.8u wn=1.7u ln=0.13u
XI18 net037 y1 vdd vnw vpw vss / inverter lp=0.13u wp=2.8u wn=1.7u ln=0.13u
XI22 net023 y3 vdd vnw vpw vss / inverter lp=0.13u wp=2.8u wn=1.7u ln=0.13u
XI19 net030 y2 vdd vnw vpw vss / inverter lp=0.13u wp=2.8u wn=1.7u ln=0.13u
XI13 A0BAR A1BAR net040 vdd vnw vpw vss / nand2 lpb=0.13u wpb=0.57u lpa=0.13u 
+ wpa=0.57u wnb=0.57u lnb=0.13u wna=0.57u lna=0.13u
XI17 A0 A1BAR net037 vdd vnw vpw vss / nand2 lpb=0.13u wpb=0.57u lpa=0.13u 
+ wpa=0.57u wnb=0.57u lnb=0.13u wna=0.57u lna=0.13u
XI21 A0 A1 net023 vdd vnw vpw vss / nand2 lpb=0.13u wpb=0.57u lpa=0.13u 
+ wpa=0.57u wnb=0.57u lnb=0.13u wna=0.57u lna=0.13u
XI20 A0BAR A1 net030 vdd vnw vpw vss / nand2 lpb=0.13u wpb=0.57u lpa=0.13u 
+ wpa=0.57u wnb=0.57u lnb=0.13u wna=0.57u lna=0.13u
.ENDS


************************************************************************
* Library Name: insemi_compiler_130
* Cell Name: columnselectcntrl
* View Name: schematic
************************************************************************

.SUBCKT columnselectcntrl bnksel iclk pch_l pch_r rd_wenb rdsel_l<0> rdsel_l<1> rdsel_l<2> rdsel_l<3> rdsel_r<0> rdsel_r<1> rdsel_r<2> rdsel_r<3> vdd vnw vpw vss wr_wenb wrsel_l<0> wrsel_l<1> wrsel_l<2> wrsel_l<3> wrsel_r<0> wrsel_r<1> wrsel_r<2> wrsel_r<3> y0_c y1_c y2_c y3_c 
*.PININFO vdd:I vnw:I vpw:I vss:I pch_l:O pch_r:O rdsel_l<0>:O rdsel_l<1>:O 
*.PININFO rdsel_l<2>:O rdsel_l<3>:O rdsel_r<0>:O rdsel_r<1>:O rdsel_r<2>:O 
*.PININFO rdsel_r<3>:O wrsel_l<0>:O wrsel_l<1>:O wrsel_l<2>:O wrsel_l<3>:O 
*.PININFO wrsel_r<0>:O wrsel_r<1>:O wrsel_r<2>:O wrsel_r<3>:O bnksel:B iclk:B 
*.PININFO rd_wenb:B wr_wenb:B y0_c:B y1_c:B y2_c:B y3_c:B
XI6 net15 rd_top vdd vnw vpw vss / inverter lp=0.13u wp=2.8u wn=1.7u ln=0.13u
XI5 net7 wr_top vdd vnw vpw vss / inverter lp=0.13u wp=2.8u wn=1.7u ln=0.13u
XIrdselpredrv<0> net65<0> rdsel_inv<0> vdd vnw vpw vss / inverter lp=0.13u 
+ wp=2.8u wn=1.7u ln=0.13u
XIrdselpredrv<1> net65<1> rdsel_inv<1> vdd vnw vpw vss / inverter lp=0.13u 
+ wp=2.8u wn=1.7u ln=0.13u
XIrdselpredrv<2> net65<2> rdsel_inv<2> vdd vnw vpw vss / inverter lp=0.13u 
+ wp=2.8u wn=1.7u ln=0.13u
XIrdselpredrv<3> net65<3> rdsel_inv<3> vdd vnw vpw vss / inverter lp=0.13u 
+ wp=2.8u wn=1.7u ln=0.13u
XIpchdrv_r pch_inv pch_r vdd vnw vpw vss / inverter lp=0.13u wp=11.5u wn=8.6u 
+ ln=0.13u
XIwrseldrv_r<0> wrsel_inv<0> wrsel_r<0> vdd vnw vpw vss / inverter lp=0.13u 
+ wp=11.5u wn=8.6u ln=0.13u
XIwrseldrv_r<1> wrsel_inv<1> wrsel_r<1> vdd vnw vpw vss / inverter lp=0.13u 
+ wp=11.5u wn=8.6u ln=0.13u
XIwrseldrv_r<2> wrsel_inv<2> wrsel_r<2> vdd vnw vpw vss / inverter lp=0.13u 
+ wp=11.5u wn=8.6u ln=0.13u
XIwrseldrv_r<3> wrsel_inv<3> wrsel_r<3> vdd vnw vpw vss / inverter lp=0.13u 
+ wp=11.5u wn=8.6u ln=0.13u
XIrdseldrv_r<0> rdsel_inv<0> rdsel_r<0> vdd vnw vpw vss / inverter lp=0.13u 
+ wp=11.5u wn=8.6u ln=0.13u
XIrdseldrv_r<1> rdsel_inv<1> rdsel_r<1> vdd vnw vpw vss / inverter lp=0.13u 
+ wp=11.5u wn=8.6u ln=0.13u
XIrdseldrv_r<2> rdsel_inv<2> rdsel_r<2> vdd vnw vpw vss / inverter lp=0.13u 
+ wp=11.5u wn=8.6u ln=0.13u
XIrdseldrv_r<3> rdsel_inv<3> rdsel_r<3> vdd vnw vpw vss / inverter lp=0.13u 
+ wp=11.5u wn=8.6u ln=0.13u
XIpchdrv_l pch_inv pch_l vdd vnw vpw vss / inverter lp=0.13u wp=11.5u wn=8.6u 
+ ln=0.13u
XIwrseldrv_l<0> wrsel_inv<0> wrsel_l<0> vdd vnw vpw vss / inverter lp=0.13u 
+ wp=11.5u wn=8.6u ln=0.13u
XIwrseldrv_l<1> wrsel_inv<1> wrsel_l<1> vdd vnw vpw vss / inverter lp=0.13u 
+ wp=11.5u wn=8.6u ln=0.13u
XIwrseldrv_l<2> wrsel_inv<2> wrsel_l<2> vdd vnw vpw vss / inverter lp=0.13u 
+ wp=11.5u wn=8.6u ln=0.13u
XIwrseldrv_l<3> wrsel_inv<3> wrsel_l<3> vdd vnw vpw vss / inverter lp=0.13u 
+ wp=11.5u wn=8.6u ln=0.13u
XIrdseldrv_l<0> rdsel_inv<0> rdsel_l<0> vdd vnw vpw vss / inverter lp=0.13u 
+ wp=11.5u wn=8.6u ln=0.13u
XIrdseldrv_l<1> rdsel_inv<1> rdsel_l<1> vdd vnw vpw vss / inverter lp=0.13u 
+ wp=11.5u wn=8.6u ln=0.13u
XIrdseldrv_l<2> rdsel_inv<2> rdsel_l<2> vdd vnw vpw vss / inverter lp=0.13u 
+ wp=11.5u wn=8.6u ln=0.13u
XIrdseldrv_l<3> rdsel_inv<3> rdsel_l<3> vdd vnw vpw vss / inverter lp=0.13u 
+ wp=11.5u wn=8.6u ln=0.13u
XIpchpredrv pch_nand pch_inv vdd vnw vpw vss / inverter lp=0.13u wp=4.3u 
+ wn=2.8u ln=0.13u
XIpchnand1 iclk bnksel clk_pch_n vdd vnw vpw vss / nand2 lpb=0.13u wpb=0.72u 
+ lpa=0.13u wpa=0.72u wnb=0.72u lnb=0.13u wna=0.72u lna=0.13u
XIrdselnand<3> y0_c rd_top net65<0> vdd vnw vpw vss / nand2 lpb=0.13u wpb=2.8u 
+ lpa=0.13u wpa=2.8u wnb=2.8u lnb=0.13u wna=2.8u lna=0.13u
XIrdselnand<2> y1_c rd_top net65<1> vdd vnw vpw vss / nand2 lpb=0.13u wpb=2.8u 
+ lpa=0.13u wpa=2.8u wnb=2.8u lnb=0.13u wna=2.8u lna=0.13u
XIrdselnand<1> y2_c rd_top net65<2> vdd vnw vpw vss / nand2 lpb=0.13u wpb=2.8u 
+ lpa=0.13u wpa=2.8u wnb=2.8u lnb=0.13u wna=2.8u lna=0.13u
XIrdselnand<0> y3_c rd_top net65<3> vdd vnw vpw vss / nand2 lpb=0.13u wpb=2.8u 
+ lpa=0.13u wpa=2.8u wnb=2.8u lnb=0.13u wna=2.8u lna=0.13u
XIwrselnand<0> y0_c wr_top wrsel_inv<0> vdd vnw vpw vss / nand2 lpb=0.13u 
+ wpb=2.8u lpa=0.13u wpa=2.8u wnb=2.8u lnb=0.13u wna=2.8u lna=0.13u
XIwrselnand<1> y1_c wr_top wrsel_inv<1> vdd vnw vpw vss / nand2 lpb=0.13u 
+ wpb=2.8u lpa=0.13u wpa=2.8u wnb=2.8u lnb=0.13u wna=2.8u lna=0.13u
XIwrselnand<2> y2_c wr_top wrsel_inv<2> vdd vnw vpw vss / nand2 lpb=0.13u 
+ wpb=2.8u lpa=0.13u wpa=2.8u wnb=2.8u lnb=0.13u wna=2.8u lna=0.13u
XIwrselnand<3> y3_c wr_top wrsel_inv<3> vdd vnw vpw vss / nand2 lpb=0.13u 
+ wpb=2.8u lpa=0.13u wpa=2.8u wnb=2.8u lnb=0.13u wna=2.8u lna=0.13u
XIpchnand2 clk_pch_n clk_pch_n_dly pch_nand vdd vnw vpw vss / nand2 lpb=0.13u 
+ wpb=1.44u lpa=0.13u wpa=1.44u wnb=1.44u lnb=0.13u wna=1.44u lna=0.13u
XIclkpchdly clk_pch_n clk_pch_n_dly vdd vnw vpw vss / dealybuff wn=175n 
+ ln=130n lp=130n wp=175n
XI2 iclk rd_wenb bnksel net15 vdd vnw vpw vss / nand3 wna=1.44u lna=0.13u 
+ wnb=1.44u lnb=0.13u wnc=1.44u lnc=0.13u lpc=0.13u wpc=1.44u lpa=0.13u 
+ wpa=1.44u
XI1 iclk wr_wenb bnksel net7 vdd vnw vpw vss / nand3 wna=1.44u lna=0.13u 
+ wnb=1.44u lnb=0.13u wnc=1.44u lnc=0.13u lpc=0.13u wpc=1.44u lpa=0.13u 
+ wpa=1.44u
.ENDS


************************************************************************
* Library Name: compiler_ts13
* Cell Name: local_control
* View Name: schematic
************************************************************************

.SUBCKT local_control bnksel1_b bnksel1_t bnksel2_b bnksel2_t bnksel3_b bnksel3_t bnksel4_b bnksel4_t bot_bs bot_rowclk_0 bot_rowclk_1 cadd_n_0 cadd_n_1 iclk pch_bot_l pch_bot_r pch_top_l pch_top_r pdec00 pdec01 pdec02 pdec03 pdec04 pdec05 pdec06 pdec07 pdec10 pdec11 pdec12 pdec13 pdec14 pdec15 pdec16 pdec17 radd_n_0 rdsel_bot_l<0> rdsel_bot_l<1> rdsel_bot_l<2> rdsel_bot_l<3> rdsel_bot_r<0> rdsel_bot_r<1> rdsel_bot_r<2> rdsel_bot_r<3> rdsel_top_l<0> rdsel_top_l<1> rdsel_top_l<2> rdsel_top_l<3> rdsel_top_r<0> rdsel_top_r<1> rdsel_top_r<2> rdsel_top_r<3> reset sae_l sae_r saprech_l saprech_r top_bs top_rowclk_0 top_rowclk_1 vdd vnw vpw vss wenb wrsel_bot_l<0> wrsel_bot_l<1> wrsel_bot_l<2> wrsel_bot_l<3> wrsel_bot_r<0> wrsel_bot_r<1> wrsel_bot_r<2> wrsel_bot_r<3> wrsel_top_l<0> wrsel_top_l<1> wrsel_top_l<2> wrsel_top_l<3> wrsel_top_r<0> wrsel_top_r<1> wrsel_top_r<2> wrsel_top_r<3> 
*.SUBCKT local_control bnksel1_b bnksel1_t bnksel2_b bnksel2_t bnksel3_b 
*+ bnksel3_t bnksel4_b bnksel4_t bot_bs bot_rowclk_0 bot_rowclk_1 cadd_n_0 
*+ cadd_n_1 iclk pch_bot_l pch_bot_r pch_top_l pch_top_r pdec00 pdec01 pdec02 
*+ pdec03 pdec04 pdec05 pdec06 pdec07 pdec10 pdec11 pdec12 pdec13 pdec14 pdec15 
*+ pdec16 pdec17 radd_n_0 rdsel_bot_l<0> rdsel_bot_l<1> rdsel_bot_l<2> 
*+ rdsel_bot_l<3> rdsel_bot_r<0> rdsel_bot_r<1> rdsel_bot_r<2> rdsel_bot_r<3> 
*+ rdsel_top_l<0> rdsel_top_l<1> rdsel_top_l<2> rdsel_top_l<3> rdsel_top_r<0> 
*+ rdsel_top_r<1> rdsel_top_r<2> rdsel_top_r<3> reset sae_l sae_r saprech_l 
*+ saprech_r top_bs top_rowclk_0 top_rowclk_1 vdd vnw vpw vss wenb 
*+ wrsel_bot_l<0> wrsel_bot_l<1> wrsel_bot_l<2> wrsel_bot_l<3> wrsel_bot_r<0> 
*+ wrsel_bot_r<1> wrsel_bot_r<2> wrsel_bot_r<3> wrsel_top_l<0> wrsel_top_l<1> 
*+ wrsel_top_l<2> wrsel_top_l<3> wrsel_top_r<0> wrsel_top_r<1> wrsel_top_r<2> 
*+ wrsel_top_r<3>
*.PININFO bnksel1_b:B bnksel1_t:B bnksel2_b:B bnksel2_t:B bnksel3_b:B 
*.PININFO bnksel3_t:B bnksel4_b:B bnksel4_t:B bot_bs:B bot_rowclk_0:B 
*.PININFO bot_rowclk_1:B cadd_n_0:B cadd_n_1:B iclk:B pch_bot_l:B pch_bot_r:B 
*.PININFO pch_top_l:B pch_top_r:B pdec00:B pdec01:B pdec02:B pdec03:B pdec04:B 
*.PININFO pdec05:B pdec06:B pdec07:B pdec10:B pdec11:B pdec12:B pdec13:B 
*.PININFO pdec14:B pdec15:B pdec16:B pdec17:B radd_n_0:B rdsel_bot_l<0>:B 
*.PININFO rdsel_bot_l<1>:B rdsel_bot_l<2>:B rdsel_bot_l<3>:B rdsel_bot_r<0>:B 
*.PININFO rdsel_bot_r<1>:B rdsel_bot_r<2>:B rdsel_bot_r<3>:B rdsel_top_l<0>:B 
*.PININFO rdsel_top_l<1>:B rdsel_top_l<2>:B rdsel_top_l<3>:B rdsel_top_r<0>:B 
*.PININFO rdsel_top_r<1>:B rdsel_top_r<2>:B rdsel_top_r<3>:B reset:B sae_l:B 
*.PININFO sae_r:B saprech_l:B saprech_r:B top_bs:B top_rowclk_0:B 
*.PININFO top_rowclk_1:B vdd:B vnw:B vpw:B vss:B wenb:B wrsel_bot_l<0>:B 
*.PININFO wrsel_bot_l<1>:B wrsel_bot_l<2>:B wrsel_bot_l<3>:B wrsel_bot_r<0>:B 
*.PININFO wrsel_bot_r<1>:B wrsel_bot_r<2>:B wrsel_bot_r<3>:B wrsel_top_l<0>:B 
*.PININFO wrsel_top_l<1>:B wrsel_top_l<2>:B wrsel_top_l<3>:B wrsel_top_r<0>:B 
*.PININFO wrsel_top_r<1>:B wrsel_top_r<2>:B wrsel_top_r<3>:B
Xsactrl iclk sae_l sae_r rd_wenb saprech_l saprech_r vdd vnw vpw vss / sactrl
Xwclkgen_top top_bs iclk wlclk_pdec_0 wlclk_pdec_1 vdd vnw vpw vss 
+ top_rowclk_0 top_rowclk_1 / wclkgen
Xwclkgen_bot bot_bs iclk wlclk_pdec_0 wlclk_pdec_1 vdd vnw vpw vss 
+ bot_rowclk_0 bot_rowclk_1 / wclkgen
XI0 a0_colm a1_colm vdd vnw vpw vss y0_c y1_c y2_c y3_c / 2x4_decoder
Xcolselcntrl_top top_bs iclk pch_top_l pch_top_r rd_wenb rdsel_top_l<0> 
+ rdsel_top_l<1> rdsel_top_l<2> rdsel_top_l<3> rdsel_top_r<0> rdsel_top_r<1> 
+ rdsel_top_r<2> rdsel_top_r<3> vdd vnw vpw vss wr_wenb wrsel_top_l<0> 
+ wrsel_top_l<1> wrsel_top_l<2> wrsel_top_l<3> wrsel_top_r<0> wrsel_top_r<1> 
+ wrsel_top_r<2> wrsel_top_r<3> y0_c y1_c y2_c y3_c / columnselectcntrl
Xcolselcntrl_bot bot_bs iclk pch_bot_l pch_bot_r rd_wenb rdsel_bot_l<0> 
+ rdsel_bot_l<1> rdsel_bot_l<2> rdsel_bot_l<3> rdsel_bot_r<0> rdsel_bot_r<1> 
+ rdsel_bot_r<2> rdsel_bot_r<3> vdd vnw vpw vss wr_wenb wrsel_bot_l<0> 
+ wrsel_bot_l<1> wrsel_bot_l<2> wrsel_bot_l<3> wrsel_bot_r<0> wrsel_bot_r<1> 
+ wrsel_bot_r<2> wrsel_bot_r<3> y0_c y1_c y2_c y3_c / columnselectcntrl
XI46 wlclk_pdec_1 wlclk_pdec_0 vdd vnw vpw vss / inverter lp=0.13u wp=0.48u 
+ wn=0.345u ln=0.13u
XI47 radd_n_0 wlclk_pdec_1 vdd vnw vpw vss / inverter lp=0.13u wp=0.46u 
+ wn=0.345u ln=0.13u
XI58 rd_wenb wr_wenb vdd vnw vpw vss / inverter lp=0.13u wp=1.7u wn=1.15u 
+ ln=0.13u
XI57 wenb rd_wenb vdd vnw vpw vss / inverter lp=0.13u wp=1.7u wn=1.15u ln=0.13u
XI44 cadd_n_0 a0_colm vdd vnw vpw vss / inverter lp=0.13u wp=0.460u wn=0.345u 
+ ln=0.13u
XI45 cadd_n_1 a1_colm vdd vnw vpw vss / inverter lp=0.13u wp=0.460u wn=0.345u 
+ ln=0.13u
.ENDS


************************************************************************
* Library Name: insemi_compiler_130
* Cell Name: senselatch
* View Name: schematic
************************************************************************

.SUBCKT senselatch rdout sae sc st vdd vnw vpw vss 
*.PININFO rdout:B sae:B sc:B st:B vdd:B vnw:B vpw:B vss:B
MPM0 net86 saex vdd vnw P W=520n L=130n M=1
MPM4 salat_int st net86 vnw P W=520n L=130n M=1
MPM2 net78 sae vdd vnw P W=520n L=130n M=1
MPM3 salat_int net57 net78 vnw P W=520n L=130n M=1
MPM5 sadummy sc net74 vnw P W=520n L=130n M=1
MPM6 net74 saex vdd vnw P W=520n L=130n M=1
XI0 salat_int net57 vdd vnw vpw vss / inverter lp=0.13u wp=0.52u wn=0.345u 
+ ln=0.13u
Xsalatoutdrv salat_int rdout vdd vnw vpw vss / inverter lp=0.13u wp=2.8u 
+ wn=1.7u ln=0.13u
Xsaeinv_lat sae saex vdd vnw vpw vss / inverter lp=0.13u wp=0.52u wn=0.345u 
+ ln=0.13u
MNM0 salat_int st net59 vpw N M=1 L=130n W=345n
MNM1 net59 sae vss vpw N M=1 L=130n W=345n
MNM2 salat_int net57 net51 vpw N M=1 L=130n W=345n
MNM3 net51 saex vss vpw N M=1 L=130n W=345n
MNM4 net47 sae vss vpw N M=1 L=130n W=345n
MNM5 sadummy sc net47 vpw N M=1 L=130n W=345n
.ENDS


************************************************************************
* Library Name: insemi_compiler_130
* Cell Name: local_wdrv
* View Name: schematic
************************************************************************

.SUBCKT local_wdrv din0 dout0 dout1 vdd vnw vpw vss 
*.PININFO din0:I vdd:I vnw:I vpw:I vss:I dout0:O dout1:O
XI0 din0 net24 vdd vnw vpw vss / inverter lp=0.13u wp=1.44u wn=0.72u ln=0.13u
XI1 net24 dout0 vdd vnw vpw vss / inverter lp=0.13u wp=1.44u wn=0.72u ln=0.13u
XI2 net6 dout1 vdd vnw vpw vss / inverter lp=0.13u wp=1.44u wn=0.72u ln=0.13u
XI3 net24 net6 vdd vnw vpw vss / inverter lp=0.13u wp=1.44u wn=0.72u ln=0.13u
.ENDS


************************************************************************
* Library Name: insemi_compiler_130
* Cell Name: senseamp
* View Name: schematic
************************************************************************

.SUBCKT senseamp sae sapchx sc st vdd vnw vpw vss 
*.PININFO sae:B sapchx:B sc:B st:B vdd:B vnw:B vpw:B vss:B
MPM0 sc st vdd vnw P W=345n L=130n M=1
MPM1 st sc vdd vnw P W=345n L=130n M=1
MPM5 st sapchx sc vnw P W=175n L=130n M=1
MPM4 sc sapchx vdd vnw P W=175n L=130n M=1
MPM3 st sapchx vdd vnw P W=175n L=130n M=1
MNM0 sc st VG vpw N M=1 L=130n W=720n
MNM1 st sc VG vpw N M=1 L=130n W=720n
MNM2 VG sae vss vpw N M=1 L=130n W=510n
.ENDS


************************************************************************
* Library Name: insemi_compiler_130
* Cell Name: rdwrsel
* View Name: schematic
************************************************************************

.SUBCKT rdwrsel bl nbl pchx rbl rdsel rnbl vdd vnw vpw wbl wnbl wrsel 
*.PININFO pchx:I rdsel:I vdd:I vnw:I vpw:I wrsel:I bl:B nbl:B rbl:B rnbl:B 
*.PININFO wbl:B wnbl:B
MPM0 rbl rdsel bl vnw P W=720n L=130n M=1
MPM2 rnbl rdsel nbl vnw P W=720n L=130n M=1
MPM5 bl pchx nbl vnw P W=345n L=130n M=1
MPM6 bl pchx vdd vnw P W=720n L=130n M=1
MPM7 nbl pchx vdd vnw P W=720n L=130n M=1
MNM1 bl wrsel wbl vpw N M=1 L=130n W=720n
MNM2 nbl wrsel wnbl vpw N M=1 L=130n W=720n
.ENDS


************************************************************************
* Library Name: insemi_compiler_130
* Cell Name: rdwrselx4
* View Name: schematic
************************************************************************

.SUBCKT rdwrselx4 blc0 blc1 blc2 blc3 blpchx blt0 blt1 blt2 blt3 rblc rblt rdselx0 rdselx1 rdselx2 rdselx3 vdd vnw vpw wblc wblt wrsel0 wrsel1 wrsel2 wrsel3 
*.PININFO blc0:B blc1:B blc2:B blc3:B blpchx:B blt0:B blt1:B blt2:B blt3:B 
*.PININFO rblc:B rblt:B rdselx0:B rdselx1:B rdselx2:B rdselx3:B vdd:B vnw:B 
*.PININFO vpw:B wblc:B wblt:B wrsel0:B wrsel1:B wrsel2:B wrsel3:B
XI1 blt1 blc1 blpchx rblt rdselx1 rblc vdd vnw vpw wblt wblc wrsel1 / rdwrsel
XI0 blt0 blc0 blpchx rblt rdselx0 rblc vdd vnw vpw wblt wblc wrsel0 / rdwrsel
XI3 blt3 blc3 blpchx rblt rdselx3 rblc vdd vnw vpw wblt wblc wrsel3 / rdwrsel
XI2 blt2 blc2 blpchx rblt rdselx2 rblc vdd vnw vpw wblt wblc wrsel2 / rdwrsel
.ENDS


************************************************************************
* Library Name: compiler_ts13
* Cell Name: liomux4
* View Name: schematic
************************************************************************

.SUBCKT liomux4 blc0_bot blc0_top blc1_bot blc1_top blc2_bot blc2_top blc3_bot blc3_top blpchx_bot blpchx_top blt0_bot blt0_top blt1_bot blt1_top blt2_bot blt2_top blt3_bot blt3_top lwdint rdout rdselx0_bot rdselx0_top rdselx1_bot rdselx1_top rdselx2_bot rdselx2_top rdselx3_bot rdselx3_top saex sapchx vdd vnw vpw vss wrsel0_bot wrsel0_top wrsel1_bot wrsel1_top wrsel2_bot wrsel2_top wrsel3_bot wrsel3_top 
*.PININFO rdout:O blc0_bot:B blc0_top:B blc1_bot:B blc1_top:B blc2_bot:B 
*.PININFO blc2_top:B blc3_bot:B blc3_top:B blpchx_bot:B blpchx_top:B 
*.PININFO blt0_bot:B blt0_top:B blt1_bot:B blt1_top:B blt2_bot:B blt2_top:B 
*.PININFO blt3_bot:B blt3_top:B lwdint:B rdselx0_bot:B rdselx0_top:B 
*.PININFO rdselx1_bot:B rdselx1_top:B rdselx2_bot:B rdselx2_top:B 
*.PININFO rdselx3_bot:B rdselx3_top:B saex:B sapchx:B vdd:B vnw:B vpw:B vss:B 
*.PININFO wrsel0_bot:B wrsel0_top:B wrsel1_bot:B wrsel1_top:B wrsel2_bot:B 
*.PININFO wrsel2_top:B wrsel3_bot:B wrsel3_top:B
XIsenselat rdout sae sc st vdd vnw vpw vss / senselatch
XI12 lwdint lwdatat lwdatac vdd vnw vpw vss / local_wdrv
XIsenseamp sae sapchx sc st vdd vnw vpw vss / senseamp
XI9 saex sae vdd vnw vpw vss / inverter lp=0.13u wp=0.345u wn=0.345u ln=0.13u
XI14 blpchx_bot rdiso_bot vdd vnw vpw vss / inverter lp=0.13u wp=0.345u 
+ wn=0.345u ln=0.13u
XI13 blpchx_top rdiso_top vdd vnw vpw vss / inverter lp=0.13u wp=0.345u 
+ wn=0.345u ln=0.13u
Xrdwrselx4_top blc0_top blc1_top blc2_top blc3_top blpchx_top blt0_top 
+ blt1_top blt2_top blt3_top rblc_top rblt_top rdselx0_top rdselx1_top 
+ rdselx2_top rdselx3_top vdd vnw vpw lwdatac lwdatat wrsel0_top wrsel1_top 
+ wrsel2_top wrsel3_top / rdwrselx4
Xrdwrselx4_bot blc0_bot blc1_bot blc2_bot blc3_bot blpchx_bot blt0_bot 
+ blt1_bot blt2_bot blt3_bot rblc_bot rblt_bot rdselx0_bot rdselx1_bot 
+ rdselx2_bot rdselx3_bot vdd vnw vpw lwdatac lwdatat wrsel0_bot wrsel1_bot 
+ wrsel2_bot wrsel3_bot / rdwrselx4
Misopmc_b rblc_bot rdiso_bot sc vnw P W=720n L=130n M=1
Misopmt_b rblt_bot rdiso_bot st vnw P W=720n L=130n M=1
MPM5 st rdiso_top rblt_top vnw P W=720n L=130n M=1
MPM6 sc rdiso_top rblc_top vnw P W=720n L=130n M=1
MPM12 rblc_bot sapchx vdd vnw P W=345n L=130n M=1
MPM11 rblt_bot sapchx vdd vnw P W=345n L=130n M=1
MPM10 rblt_bot sapchx rblc_bot vnw P W=345n L=130n M=1
MPM9 rblt_top sapchx rblc_top vnw P W=345n L=130n M=1
MPM8 rblt_top sapchx vdd vnw P W=345n L=130n M=1
MPM7 rblc_top sapchx vdd vnw P W=345n L=130n M=1
.ENDS


************************************************************************
* Library Name: compiler_ts13
* Cell Name: liomux8
* View Name: schematic
************************************************************************

.SUBCKT liomux8 blc0_bot blc0_top blc1_bot blc1_top blc2_bot blc2_top blc3_bot blc3_top blpchx_bot blpchx_top blt0_bot blt0_top blt1_bot blt1_top blt2_bot blt2_top blt3_bot blt3_top lwdint rdout rdselx0_bot rdselx0_top rdselx1_bot rdselx1_top rdselx2_bot rdselx2_top rdselx3_bot rdselx3_top saex sapchx vdd vnw vpw vss wrsel0_bot wrsel0_top wrsel1_bot wrsel1_top wrsel2_bot wrsel2_top wrsel3_bot wrsel3_top 
*.PININFO rdout:O blc0_bot:B blc0_top:B blc1_bot:B blc1_top:B blc2_bot:B 
*.PININFO blc2_top:B blc3_bot:B blc3_top:B blpchx_bot:B blpchx_top:B 
*.PININFO blt0_bot:B blt0_top:B blt1_bot:B blt1_top:B blt2_bot:B blt2_top:B 
*.PININFO blt3_bot:B blt3_top:B lwdint:B rdselx0_bot:B rdselx0_top:B 
*.PININFO rdselx1_bot:B rdselx1_top:B rdselx2_bot:B rdselx2_top:B 
*.PININFO rdselx3_bot:B rdselx3_top:B saex:B sapchx:B vdd:B vnw:B vpw:B vss:B 
*.PININFO wrsel0_bot:B wrsel0_top:B wrsel1_bot:B wrsel1_top:B wrsel2_bot:B 
*.PININFO wrsel2_top:B wrsel3_bot:B wrsel3_top:B
XIsenselat rdout sae sc st vdd vnw vpw vss / senselatch
XI12 lwdint lwdatat lwdatac vdd vnw vpw vss / local_wdrv
XIsenseamp sae sapchx sc st vdd vnw vpw vss / senseamp
XI9 saex sae vdd vnw vpw vss / inverter lp=0.13u wp=0.345u wn=0.345u ln=0.13u
XI14 blpchx_bot rdiso_bot vdd vnw vpw vss / inverter lp=0.13u wp=0.345u 
+ wn=0.345u ln=0.13u
XI13 blpchx_top rdiso_top vdd vnw vpw vss / inverter lp=0.13u wp=0.345u 
+ wn=0.345u ln=0.13u
Xrdwrselx4_top blc0_top blc1_top blc2_top blc3_top blpchx_top blt0_top 
+ blt1_top blt2_top blt3_top rblc_top rblt_top rdselx0_top rdselx1_top 
+ rdselx2_top rdselx3_top vdd vnw vpw lwdatac lwdatat wrsel0_top wrsel1_top 
+ wrsel2_top wrsel3_top / rdwrselx4
Xrdwrselx4_bot blc0_bot blc1_bot blc2_bot blc3_bot blpchx_bot blt0_bot 
+ blt1_bot blt2_bot blt3_bot rblc_bot rblt_bot rdselx0_bot rdselx1_bot 
+ rdselx2_bot rdselx3_bot vdd vnw vpw lwdatac lwdatat wrsel0_bot wrsel1_bot 
+ wrsel2_bot wrsel3_bot / rdwrselx4
Misopmc_b rblc_bot rdiso_bot sc vnw P W=720n L=130n M=1
Misopmt_b rblt_bot rdiso_bot st vnw P W=720n L=130n M=1
MPM5 st rdiso_top rblt_top vnw P W=720n L=130n M=1
MPM6 sc rdiso_top rblc_top vnw P W=720n L=130n M=1
MPM12 rblc_bot sapchx vdd vnw P W=345n L=130n M=1
MPM11 rblt_bot sapchx vdd vnw P W=345n L=130n M=1
MPM10 rblt_bot sapchx rblc_bot vnw P W=345n L=130n M=1
MPM9 rblt_top sapchx rblc_top vnw P W=345n L=130n M=1
MPM8 rblt_top sapchx vdd vnw P W=345n L=130n M=1
MPM7 rblc_top sapchx vdd vnw P W=345n L=130n M=1
.ENDS


************************************************************************
* Library Name: compiler_ts13
* Cell Name: liomux16
* View Name: schematic
************************************************************************

.SUBCKT liomux16 blc0_bot blc0_top blc1_bot blc1_top blc2_bot blc2_top blc3_bot blc3_top blpchx_bot blpchx_top blt0_bot blt0_top blt1_bot blt1_top blt2_bot blt2_top blt3_bot blt3_top lwdint rdout rdselx0_bot rdselx0_top rdselx1_bot rdselx1_top rdselx2_bot rdselx2_top rdselx3_bot rdselx3_top saex sapchx vdd vnw vpw vss wrsel0_bot wrsel0_top wrsel1_bot wrsel1_top wrsel2_bot wrsel2_top wrsel3_bot wrsel3_top 
*.PININFO rdout:O blc0_bot:B blc0_top:B blc1_bot:B blc1_top:B blc2_bot:B 
*.PININFO blc2_top:B blc3_bot:B blc3_top:B blpchx_bot:B blpchx_top:B 
*.PININFO blt0_bot:B blt0_top:B blt1_bot:B blt1_top:B blt2_bot:B blt2_top:B 
*.PININFO blt3_bot:B blt3_top:B lwdint:B rdselx0_bot:B rdselx0_top:B 
*.PININFO rdselx1_bot:B rdselx1_top:B rdselx2_bot:B rdselx2_top:B 
*.PININFO rdselx3_bot:B rdselx3_top:B saex:B sapchx:B vdd:B vnw:B vpw:B vss:B 
*.PININFO wrsel0_bot:B wrsel0_top:B wrsel1_bot:B wrsel1_top:B wrsel2_bot:B 
*.PININFO wrsel2_top:B wrsel3_bot:B wrsel3_top:B
XIsenselat rdout sae sc st vdd vnw vpw vss / senselatch
XI12 lwdint lwdatat lwdatac vdd vnw vpw vss / local_wdrv
XIsenseamp sae sapchx sc st vdd vnw vpw vss / senseamp
XI9 saex sae vdd vnw vpw vss / inverter lp=0.13u wp=0.345u wn=0.345u ln=0.13u
XI14 blpchx_bot rdiso_bot vdd vnw vpw vss / inverter lp=0.13u wp=0.345u 
+ wn=0.345u ln=0.13u
XI13 blpchx_top rdiso_top vdd vnw vpw vss / inverter lp=0.13u wp=0.345u 
+ wn=0.345u ln=0.13u