.SUBCKT nand3 A B Y vdd vnw vpw vss
MM0 Y B vdd vnw P W=wpa L=lpa M=1.0n
MPM0 Y A vdd vnw P W=wpa L=lpa M=1
MPM2 Y B vdd vnw P W=wpc L=lpc M=1
MNM2 net92_4 B vss vpw N M=1 L=lnc W=wnc
Ra21 net17 net92_1 40
Ra22 net92_1 net92_2 40
Ra23 net92_2 net92_3 40
Ra24 net92_3 B 40
Ca21 B vss 20
Ca22 Y B 20
MNM1 net17 B net9 vpw N M=1 L=lnb W=wnb
MNM0 Y A net17 vpw N M=1 L=lna W=wna
.ENDS

.SUBCKT nand2 A B Y vdd vnw vpw vss
MNM0 Y A net12 vpw N M=1 L=lna W=wna
MNM1 net12 B vss vpw N M=1 L=lnb W=wnb
MPM0 Y A vdd vnw P W=wpa L=lpa M=1
MPM1 Y B vdd vnw P W=wpb L=lpb M=1
.ENDS

.SUBCKT transmission_gate A B C D vnw vpw 
MPM1 A C B vnw P W=wp L=lp M=1
MNM1 A D B vpw N M=1 L=ln W=wn
.ENDS

.SUBCKT inverter In Out vdd vnw vpw vss
MNM0 Out In vss vpw N M=1 L=ln W=wn
MPM0 Out In vdd vnw P W=wp L=lp M=1
.ENDS

.SUBCKT tristate_inverter A B C Y vdd vnw vpw vss 
MPM1 net23 B vdd vnw P W=wpb L=lpb M=1
MPM0 Y A net23 vnw P W=wpa L=lpa M=1
MNM1 net8 C vss vpw N M=1 L=lnb W=wnb
MNM0 Y A net8 vpw N M=1 L=lna W=wna
.ENDS

.SUBCKT latch_addr In Out clk clkb vdd vnw vpw vss 
XI1 In Inb vdd vnw vpw vss / inverter lp=0.13u wp=0.69u wn=0.345u ln=0.13u
XI2 Outb Out vdd vnw vpw vss / inverter lp=0.13u wp=1.44u wn=0.86u ln=0.13u
XI0 Inb Outb clk clkb vnw vpw / transmission_gate wn=0.69u ln=130n lp=130n 
+ wp=0.69u
XIfbinv Out clkb clk Outb vdd vnw vpw vss / tristate_inverter wna=0.46u 
+ lna=130n wnb=0.46u lnb=130n lpa=130n wpa=0.345u lpb=130n wpb=0.345u
.ENDS

.SUBCKT GCK A<0> A<1> A<2> A<3> A<4> A<5> A<6> A<7> A<8> A<9> A<10> A<11> bnksel1_b bnksel1_t bnksel2_b bnksel2_t bnksel3_b bnksel3_t bnksel4_b bnksel4_t cadd_n_0 cadd_n_1 cen clk iclk pdec00 pdec01 pdec02 pdec03 pdec04 pdec05 pdec06 pdec07 pdec10 pdec11 pdec12 pdec13 pdec14 pdec15 pdec16 pdec17 radd_n_0 reset vdd vnw vpw vss vsse wclk wen wenb wlclk0 wlclk1
XIwendrv net43 wenb vdd vnw vpw vss / inverter lp=0.13u wp=2.8u wn=1.7u ln=0.13u
XIbankaddrlat<0> A<9> la<9> biclk niclk vdd vnw vpw vss / latch_addr
.ENDS

.SUBCKT liomux4 blc0_bot blc0_top blc1_bot blc1_top blc2_bot blc2_top blc3_bot blc3_top blpchx_bot blpchx_top blt0_bot blt0_top blt1_bot blt1_top blt2_bot blt2_top blt3_bot blt3_top lwdint rdout rdselx0_bot rdselx0_top rdselx1_bot rdselx1_top rdselx2_bot rdselx2_top rdselx3_bot rdselx3_top saex sapchx vdd vnw vpw vss wrsel0_bot wrsel0_top wrsel1_bot wrsel1_top wrsel2_bot wrsel2_top wrsel3_bot wrsel3_top
XI9 saex sae vdd vnw vpw vss / inverter lp=0.13u wp=0.345u wn=0.345u ln=0.13u
XI14 blpchx_bot rdiso_bot vdd vnw vpw vss / inverter lp=0.13u wp=0.345u 
+ wn=0.345u ln=0.13u
XI13 blpchx_top rdiso_top vdd vnw vpw vss / inverter lp=0.13u wp=0.345u 
+ wn=0.345u ln=0.13u
Misopmc_b rblc_bot rdiso_bot sc vnw P W=720n L=130n M=1
Misopmt_b rblt_bot rdiso_bot st vnw P W=720n L=130n M=1
MPM5 st rdiso_top rblt_top vnw P W=720n L=130n M=1
MPM6 sc rdiso_top rblc_top vnw P W=720n L=130n M=1
MPM12 rblc_bot sapchx vdd vnw P W=345n L=130n M=1
MPM11 rblt_bot sapchx vdd vnw P W=345n L=130n M=1
MPM10 rblt_bot sapchx rblc_bot vnw P W=345n L=130n M=1
MPM9 rblt_top sapchx rblc_top vnw P W=345n L=130n M=1
MPM8 rblt_top sapchx vdd vnw P W=345n L=130n M=1
MPM7 rblc_top sapchx vdd vnw P W=345n L=130n M=1
.ENDS

.SUBCKT lio_array_slice vdd vss vnw vpw lwdint0 lwdint1 lwdint2 lwdint3 rdout0 rdout1 rdout2 rdout3 bnksel1 bnksel3 bnksel5 bnksel7 bnksel0 bnksel2 bnksel4 bnksel6 cadd_n_0 cadd_n_1 reset sae_left sae_right saprech_left saprech_right wenb pch_bot_left pch_bot_right pch_top_left pch_top_right iclk bot_rowclk_0 bot_rowclk_1 top_rowclk_0 top_rowclk_1 pdec00 pdec01 pdec02 pdec03 pdec04 pdec05 pdec06 pdec07 pdec10 pdec11 pdec12 pdec13 pdec14 pdec15 pdec16 pdec17 radd_n_0 
Xliomux4__1 pch_bot_left pch_top_left lwdint0 rdout0 sae_left saprech_left vdd vnw vpw vss liomux4 
Xliomux4__2 pch_bot_left pch_top_left lwdint1 rdout1 sae_left saprech_left vdd vnw vpw vss liomux4 
Xliomux4__4 pch_bot_right pch_top_right lwdint2 rdout2 sae_right saprech_right vdd vnw vpw vss liomux4 
Xliomux4__5 pch_bot_right pch_top_right lwdint3 rdout3 sae_right saprech_right vdd vnw vpw vss liomux4 
.ENDS
